*** SPICE deck for cell column4_4{lay} from library SRAM_8x8
*** Created on Sat Mar 21, 2015 16:10:37
*** Last revised on Fri Apr 03, 2015 11:32:08
*** Written on Fri Apr 03, 2015 11:32:46 by Electric VLSI Design System, 
*** version 9.05
*** Layout tech: mocmos, foundry MOSIS
*** UC SPICE *** , MIN_RESIST 4.0, MIN_CAPAC 0.1FF

*** SUBCIRCUIT SRAM_8x8__NAND3 FROM CELL NAND3{lay}
.SUBCKT SRAM_8x8__NAND3 A ABC B C gnd vdd
Mncc@2 net@3 A ABC gnd NMOS L=0.6U W=3U AS=8.213P AD=2.7P PS=10.05U PD=4.8U
Mnmos@0 net@4 B net@3 gnd NMOS L=0.6U W=3U AS=2.7P AD=2.7P PS=4.8U PD=4.8U
Mnmos@2 gnd C net@4 gnd NMOS L=0.6U W=3U AS=2.7P AD=25.2P PS=4.8U PD=37.8U
Mpmos@0 ABC A vdd vdd PMOS L=0.6U W=4.5U AS=14.55P AD=8.213P PS=18.8U 
+PD=10.05U
Mpmos@1 vdd B ABC vdd PMOS L=0.6U W=4.5U AS=8.213P AD=14.55P PS=10.05U 
+PD=18.8U
Mpmos@2 ABC C vdd vdd PMOS L=0.6U W=4.5U AS=14.55P AD=8.213P PS=18.8U 
+PD=10.05U
.ENDS SRAM_8x8__NAND3

*** SUBCIRCUIT inverter1__inv FROM CELL inverter1:inv{lay}
.SUBCKT inverter1__inv gnd in out vdd
Mnmos@0 out in gnd gnd NMOS L=0.6U W=3U AS=10.35P AD=6.75P PS=18.9U PD=12.6U
Mpmos@0 out in vdd vdd PMOS L=0.6U W=6U AS=12.6P AD=6.75P PS=24.6U PD=12.6U
.ENDS inverter1__inv

*** SUBCIRCUIT SRAM_8x8__decoder_2 FROM CELL decoder_2{lay}
.SUBCKT SRAM_8x8__decoder_2 A B C Den gnd I0 I1 I2 I3 I4 I5 I6 I7 vdd
XNAND3@0 net@721 I0 net@724 net@727 gnd vdd SRAM_8x8__NAND3
XNAND3@1 net@721 I1 net@724 net@10 gnd vdd SRAM_8x8__NAND3
XNAND3@2 net@721 I2 net@5 net@727 gnd vdd SRAM_8x8__NAND3
XNAND3@3 net@721 I3 net@5 net@10 gnd vdd SRAM_8x8__NAND3
XNAND3@5 net@1 I4 net@724 net@727 gnd vdd SRAM_8x8__NAND3
XNAND3@6 net@1 I5 net@724 net@10 gnd vdd SRAM_8x8__NAND3
XNAND3@7 net@1 I6 net@5 net@727 gnd vdd SRAM_8x8__NAND3
XNAND3@8 net@1 I7 net@5 net@10 gnd vdd SRAM_8x8__NAND3
Xinv@0 gnd Den net@22 vdd inverter1__inv
Xinv@1 gnd net@1 net@721 vdd inverter1__inv
Xinv@2 gnd net@5 net@724 vdd inverter1__inv
Xinv@3 gnd net@10 net@727 vdd inverter1__inv
Mnmos@0 A Den net@1 gnd NMOS L=0.6U W=0.9U AS=2.52P AD=7.02P PS=6.6U PD=15.6U
Mnmos@1 B Den net@5 gnd NMOS L=0.6U W=0.9U AS=2.52P AD=7.02P PS=6.6U PD=15.6U
Mnmos@2 C Den net@10 gnd NMOS L=0.6U W=0.9U AS=2.52P AD=7.02P PS=6.6U 
+PD=15.6U
Mpmos@0 A net@22 net@1 vdd PMOS L=0.6U W=0.9U AS=2.52P AD=7.02P PS=6.6U 
+PD=15.6U
Mpmos@1 B net@22 net@5 vdd PMOS L=0.6U W=0.9U AS=2.52P AD=7.02P PS=6.6U 
+PD=15.6U
Mpmos@2 C net@22 net@10 vdd PMOS L=0.6U W=0.9U AS=2.52P AD=7.02P PS=6.6U 
+PD=15.6U
.ENDS SRAM_8x8__decoder_2

*** SUBCIRCUIT inverter1__inv_2 FROM CELL inverter1:inv_2{lay}
.SUBCKT inverter1__inv_2 gnd in out vdd
Mnmos@0 out in gnd gnd NMOS L=0.6U W=3U AS=10.35P AD=6.75P PS=18.9U PD=12.6U
Mpmos@0 out in vdd vdd PMOS L=0.6U W=6U AS=12.6P AD=6.75P PS=24.6U PD=12.6U
.ENDS inverter1__inv_2

*** TOP LEVEL CELL: column4_4{lay}
Xdecoder_@0 A B C DEN gnd net@4666 net@4673 net@4686 net@4676 net@4678 
+net@4681 net@4682 net@6205 vdd SRAM_8x8__decoder_2
Xinv_2@0 gnd net@4666 net@387 vdd inverter1__inv_2
Xinv_2@1 gnd net@4673 net@1411 vdd inverter1__inv_2
Xinv_2@2 gnd net@4686 net@1997 vdd inverter1__inv_2
Xinv_2@3 gnd net@4676 net@1803 vdd inverter1__inv_2
Xinv_2@4 gnd net@4678 net@2586 vdd inverter1__inv_2
Xinv_2@5 gnd net@4681 net@2604 vdd inverter1__inv_2
Xinv_2@6 gnd net@4682 net@3190 vdd inverter1__inv_2
Xinv_2@7 gnd net@6205 net@2996 vdd inverter1__inv_2
Mnmos@18 gnd net@339 net@329 gnd NMOS L=0.6U W=11.25U AS=9.037P AD=28.36P 
+PS=16.45U PD=42.077U
Mnmos@19 gnd net@329 net@339 gnd NMOS L=0.6U W=11.25U AS=8.287P AD=28.36P 
+PS=16.05U PD=42.077U
Mnmos@20 net@480 net@387 net@329 gnd NMOS L=0.6U W=4.5U AS=9.037P AD=32.973P 
+PS=16.45U PD=30.164U
Mnmos@21 net@481 net@387 net@339 gnd NMOS L=0.6U W=4.5U AS=8.287P AD=32.973P 
+PS=16.05U PD=30.164U
Mnmos@22 gnd net@586 net@584 gnd NMOS L=0.6U W=11.25U AS=9.037P AD=28.36P 
+PS=16.45U PD=42.077U
Mnmos@23 gnd net@584 net@586 gnd NMOS L=0.6U W=11.25U AS=8.287P AD=28.36P 
+PS=16.05U PD=42.077U
Mnmos@24 net@613 net@387 net@584 gnd NMOS L=0.6U W=4.5U AS=9.037P AD=32.973P 
+PS=16.45U PD=30.164U
Mnmos@25 net@614 net@387 net@586 gnd NMOS L=0.6U W=4.5U AS=8.287P AD=73.064P 
+PS=16.05U PD=57.436U
Mnmos@26 gnd net@634 net@632 gnd NMOS L=0.6U W=11.25U AS=9.037P AD=28.36P 
+PS=16.45U PD=42.077U
Mnmos@27 gnd net@632 net@634 gnd NMOS L=0.6U W=11.25U AS=8.287P AD=28.36P 
+PS=16.05U PD=42.077U
Mnmos@28 net@661 net@387 net@632 gnd NMOS L=0.6U W=4.5U AS=9.037P AD=32.973P 
+PS=16.45U PD=30.164U
Mnmos@29 net@662 net@387 net@634 gnd NMOS L=0.6U W=4.5U AS=8.287P AD=32.973P 
+PS=16.05U PD=30.164U
Mnmos@30 gnd net@683 net@681 gnd NMOS L=0.6U W=11.25U AS=9.037P AD=28.36P 
+PS=16.45U PD=42.077U
Mnmos@31 gnd net@681 net@683 gnd NMOS L=0.6U W=11.25U AS=8.287P AD=28.36P 
+PS=16.05U PD=42.077U
Mnmos@32 net@710 net@387 net@681 gnd NMOS L=0.6U W=4.5U AS=9.037P AD=32.973P 
+PS=16.45U PD=30.164U
Mnmos@33 net@711 net@387 net@683 gnd NMOS L=0.6U W=4.5U AS=8.287P AD=32.973P 
+PS=16.05U PD=30.164U
Mnmos@34 gnd net@727 net@725 gnd NMOS L=0.6U W=11.25U AS=9.037P AD=28.36P 
+PS=16.45U PD=42.077U
Mnmos@35 gnd net@725 net@727 gnd NMOS L=0.6U W=11.25U AS=8.287P AD=28.36P 
+PS=16.05U PD=42.077U
Mnmos@36 net@754 net@387 net@725 gnd NMOS L=0.6U W=4.5U AS=9.037P AD=32.973P 
+PS=16.45U PD=30.164U
Mnmos@37 net@755 net@387 net@727 gnd NMOS L=0.6U W=4.5U AS=8.287P AD=32.973P 
+PS=16.05U PD=30.164U
Mnmos@38 gnd net@771 net@769 gnd NMOS L=0.6U W=11.25U AS=9.037P AD=28.36P 
+PS=16.45U PD=42.077U
Mnmos@39 gnd net@769 net@771 gnd NMOS L=0.6U W=11.25U AS=8.287P AD=28.36P 
+PS=16.05U PD=42.077U
Mnmos@40 net@798 net@387 net@769 gnd NMOS L=0.6U W=4.5U AS=9.037P AD=32.973P 
+PS=16.45U PD=30.164U
Mnmos@41 net@799 net@387 net@771 gnd NMOS L=0.6U W=4.5U AS=8.287P AD=32.973P 
+PS=16.05U PD=30.164U
Mnmos@50 gnd net@924 net@922 gnd NMOS L=0.6U W=11.25U AS=9.037P AD=28.36P 
+PS=16.45U PD=42.077U
Mnmos@51 gnd net@922 net@924 gnd NMOS L=0.6U W=11.25U AS=8.287P AD=28.36P 
+PS=16.05U PD=42.077U
Mnmos@52 net@951 net@387 net@922 gnd NMOS L=0.6U W=4.5U AS=9.037P AD=32.973P 
+PS=16.45U PD=30.164U
Mnmos@53 net@952 net@387 net@924 gnd NMOS L=0.6U W=4.5U AS=8.287P AD=32.973P 
+PS=16.05U PD=30.164U
Mnmos@54 gnd net@971 net@969 gnd NMOS L=0.6U W=11.25U AS=9.037P AD=28.36P 
+PS=16.45U PD=42.077U
Mnmos@55 gnd net@969 net@971 gnd NMOS L=0.6U W=11.25U AS=8.287P AD=28.36P 
+PS=16.05U PD=42.077U
Mnmos@56 net@998 net@387 net@969 gnd NMOS L=0.6U W=4.5U AS=9.037P AD=32.973P 
+PS=16.45U PD=30.164U
Mnmos@57 net@999 net@387 net@971 gnd NMOS L=0.6U W=4.5U AS=8.287P AD=32.973P 
+PS=16.05U PD=30.164U
Mnmos@90 gnd net@1415 net@1413 gnd NMOS L=0.6U W=11.25U AS=9.037P AD=28.36P 
+PS=16.45U PD=42.077U
Mnmos@91 gnd net@1413 net@1415 gnd NMOS L=0.6U W=11.25U AS=8.287P AD=28.36P 
+PS=16.05U PD=42.077U
Mnmos@92 net@480 net@1411 net@1413 gnd NMOS L=0.6U W=4.5U AS=9.037P 
+AD=32.973P PS=16.45U PD=30.164U
Mnmos@93 net@481 net@1411 net@1415 gnd NMOS L=0.6U W=4.5U AS=8.287P 
+AD=32.973P PS=16.05U PD=30.164U
Mnmos@94 gnd net@1458 net@1456 gnd NMOS L=0.6U W=11.25U AS=9.037P AD=28.36P 
+PS=16.45U PD=42.077U
Mnmos@95 gnd net@1456 net@1458 gnd NMOS L=0.6U W=11.25U AS=8.287P AD=28.36P 
+PS=16.05U PD=42.077U
Mnmos@96 net@613 net@1411 net@1456 gnd NMOS L=0.6U W=4.5U AS=9.037P 
+AD=32.973P PS=16.45U PD=30.164U
Mnmos@97 net@614 net@1411 net@1458 gnd NMOS L=0.6U W=4.5U AS=8.287P 
+AD=73.064P PS=16.05U PD=57.436U
Mnmos@98 gnd net@1504 net@1502 gnd NMOS L=0.6U W=11.25U AS=9.037P AD=28.36P 
+PS=16.45U PD=42.077U
Mnmos@99 gnd net@1502 net@1504 gnd NMOS L=0.6U W=11.25U AS=8.287P AD=28.36P 
+PS=16.05U PD=42.077U
Mnmos@100 net@661 net@1411 net@1502 gnd NMOS L=0.6U W=4.5U AS=9.037P 
+AD=32.973P PS=16.45U PD=30.164U
Mnmos@101 net@662 net@1411 net@1504 gnd NMOS L=0.6U W=4.5U AS=8.287P 
+AD=32.973P PS=16.05U PD=30.164U
Mnmos@102 gnd net@1549 net@1547 gnd NMOS L=0.6U W=11.25U AS=9.037P AD=28.36P 
+PS=16.45U PD=42.077U
Mnmos@103 gnd net@1547 net@1549 gnd NMOS L=0.6U W=11.25U AS=8.287P AD=28.36P 
+PS=16.05U PD=42.077U
Mnmos@104 net@710 net@1411 net@1547 gnd NMOS L=0.6U W=4.5U AS=9.037P 
+AD=32.973P PS=16.45U PD=30.164U
Mnmos@105 net@711 net@1411 net@1549 gnd NMOS L=0.6U W=4.5U AS=8.287P 
+AD=32.973P PS=16.05U PD=30.164U
Mnmos@106 gnd net@1593 net@1591 gnd NMOS L=0.6U W=11.25U AS=9.037P AD=28.36P 
+PS=16.45U PD=42.077U
Mnmos@107 gnd net@1591 net@1593 gnd NMOS L=0.6U W=11.25U AS=8.287P AD=28.36P 
+PS=16.05U PD=42.077U
Mnmos@108 net@754 net@1411 net@1591 gnd NMOS L=0.6U W=4.5U AS=9.037P 
+AD=32.973P PS=16.45U PD=30.164U
Mnmos@109 net@755 net@1411 net@1593 gnd NMOS L=0.6U W=4.5U AS=8.287P 
+AD=32.973P PS=16.05U PD=30.164U
Mnmos@110 gnd net@1637 net@1635 gnd NMOS L=0.6U W=11.25U AS=9.037P AD=28.36P 
+PS=16.45U PD=42.077U
Mnmos@111 gnd net@1635 net@1637 gnd NMOS L=0.6U W=11.25U AS=8.287P AD=28.36P 
+PS=16.05U PD=42.077U
Mnmos@112 net@798 net@1411 net@1635 gnd NMOS L=0.6U W=4.5U AS=9.037P 
+AD=32.973P PS=16.45U PD=30.164U
Mnmos@113 net@799 net@1411 net@1637 gnd NMOS L=0.6U W=4.5U AS=8.287P 
+AD=32.973P PS=16.05U PD=30.164U
Mnmos@114 gnd net@1693 net@1691 gnd NMOS L=0.6U W=11.25U AS=9.037P AD=28.36P 
+PS=16.45U PD=42.077U
Mnmos@115 gnd net@1691 net@1693 gnd NMOS L=0.6U W=11.25U AS=8.287P AD=28.36P 
+PS=16.05U PD=42.077U
Mnmos@116 net@951 net@1411 net@1691 gnd NMOS L=0.6U W=4.5U AS=9.037P 
+AD=32.973P PS=16.45U PD=30.164U
Mnmos@117 net@952 net@1411 net@1693 gnd NMOS L=0.6U W=4.5U AS=8.287P 
+AD=32.973P PS=16.05U PD=30.164U
Mnmos@118 gnd net@1400 net@1403 gnd NMOS L=0.6U W=11.25U AS=9.037P AD=28.36P 
+PS=16.45U PD=42.077U
Mnmos@119 gnd net@1403 net@1400 gnd NMOS L=0.6U W=11.25U AS=8.287P AD=28.36P 
+PS=16.05U PD=42.077U
Mnmos@120 net@998 net@1411 net@1403 gnd NMOS L=0.6U W=4.5U AS=9.037P 
+AD=32.973P PS=16.45U PD=30.164U
Mnmos@121 net@999 net@1411 net@1400 gnd NMOS L=0.6U W=4.5U AS=8.287P 
+AD=32.973P PS=16.05U PD=30.164U
Mnmos@122 gnd net@1987 net@1985 gnd NMOS L=0.6U W=11.25U AS=9.037P AD=28.36P 
+PS=16.45U PD=42.077U
Mnmos@123 gnd net@1985 net@1987 gnd NMOS L=0.6U W=11.25U AS=8.287P AD=28.36P 
+PS=16.05U PD=42.077U
Mnmos@124 net@480 net@1997 net@1985 gnd NMOS L=0.6U W=4.5U AS=9.037P 
+AD=32.973P PS=16.45U PD=30.164U
Mnmos@125 net@481 net@1997 net@1987 gnd NMOS L=0.6U W=4.5U AS=8.287P 
+AD=32.973P PS=16.05U PD=30.164U
Mnmos@126 gnd net@2030 net@2028 gnd NMOS L=0.6U W=11.25U AS=9.037P AD=28.36P 
+PS=16.45U PD=42.077U
Mnmos@127 gnd net@2028 net@2030 gnd NMOS L=0.6U W=11.25U AS=8.287P AD=28.36P 
+PS=16.05U PD=42.077U
Mnmos@128 net@613 net@1997 net@2028 gnd NMOS L=0.6U W=4.5U AS=9.037P 
+AD=32.973P PS=16.45U PD=30.164U
Mnmos@129 net@614 net@1997 net@2030 gnd NMOS L=0.6U W=4.5U AS=8.287P 
+AD=73.064P PS=16.05U PD=57.436U
Mnmos@130 gnd net@2076 net@2074 gnd NMOS L=0.6U W=11.25U AS=9.037P AD=28.36P 
+PS=16.45U PD=42.077U
Mnmos@131 gnd net@2074 net@2076 gnd NMOS L=0.6U W=11.25U AS=8.287P AD=28.36P 
+PS=16.05U PD=42.077U
Mnmos@132 net@661 net@1997 net@2074 gnd NMOS L=0.6U W=4.5U AS=9.037P 
+AD=32.973P PS=16.45U PD=30.164U
Mnmos@133 net@662 net@1997 net@2076 gnd NMOS L=0.6U W=4.5U AS=8.287P 
+AD=32.973P PS=16.05U PD=30.164U
Mnmos@134 gnd net@2121 net@2119 gnd NMOS L=0.6U W=11.25U AS=9.037P AD=28.36P 
+PS=16.45U PD=42.077U
Mnmos@135 gnd net@2119 net@2121 gnd NMOS L=0.6U W=11.25U AS=8.287P AD=28.36P 
+PS=16.05U PD=42.077U
Mnmos@136 net@710 net@1997 net@2119 gnd NMOS L=0.6U W=4.5U AS=9.037P 
+AD=32.973P PS=16.45U PD=30.164U
Mnmos@137 net@711 net@1997 net@2121 gnd NMOS L=0.6U W=4.5U AS=8.287P 
+AD=32.973P PS=16.05U PD=30.164U
Mnmos@138 gnd net@2165 net@2163 gnd NMOS L=0.6U W=11.25U AS=9.037P AD=28.36P 
+PS=16.45U PD=42.077U
Mnmos@139 gnd net@2163 net@2165 gnd NMOS L=0.6U W=11.25U AS=8.287P AD=28.36P 
+PS=16.05U PD=42.077U
Mnmos@140 net@754 net@1997 net@2163 gnd NMOS L=0.6U W=4.5U AS=9.037P 
+AD=32.973P PS=16.45U PD=30.164U
Mnmos@141 net@755 net@1997 net@2165 gnd NMOS L=0.6U W=4.5U AS=8.287P 
+AD=32.973P PS=16.05U PD=30.164U
Mnmos@142 gnd net@2209 net@2207 gnd NMOS L=0.6U W=11.25U AS=9.037P AD=28.36P 
+PS=16.45U PD=42.077U
Mnmos@143 gnd net@2207 net@2209 gnd NMOS L=0.6U W=11.25U AS=8.287P AD=28.36P 
+PS=16.05U PD=42.077U
Mnmos@144 net@798 net@1997 net@2207 gnd NMOS L=0.6U W=4.5U AS=9.037P 
+AD=32.973P PS=16.45U PD=30.164U
Mnmos@145 net@799 net@1997 net@2209 gnd NMOS L=0.6U W=4.5U AS=8.287P 
+AD=32.973P PS=16.05U PD=30.164U
Mnmos@146 gnd net@2265 net@2263 gnd NMOS L=0.6U W=11.25U AS=9.037P AD=28.36P 
+PS=16.45U PD=42.077U
Mnmos@147 gnd net@2263 net@2265 gnd NMOS L=0.6U W=11.25U AS=8.287P AD=28.36P 
+PS=16.05U PD=42.077U
Mnmos@148 net@951 net@1997 net@2263 gnd NMOS L=0.6U W=4.5U AS=9.037P 
+AD=32.973P PS=16.45U PD=30.164U
Mnmos@149 net@952 net@1997 net@2265 gnd NMOS L=0.6U W=4.5U AS=8.287P 
+AD=32.973P PS=16.05U PD=30.164U
Mnmos@150 gnd net@2312 net@2310 gnd NMOS L=0.6U W=11.25U AS=9.037P AD=28.36P 
+PS=16.45U PD=42.077U
Mnmos@151 gnd net@2310 net@2312 gnd NMOS L=0.6U W=11.25U AS=8.287P AD=28.36P 
+PS=16.05U PD=42.077U
Mnmos@152 net@998 net@1997 net@2310 gnd NMOS L=0.6U W=4.5U AS=9.037P 
+AD=32.973P PS=16.45U PD=30.164U
Mnmos@153 net@999 net@1997 net@2312 gnd NMOS L=0.6U W=4.5U AS=8.287P 
+AD=32.973P PS=16.05U PD=30.164U
Mnmos@154 gnd net@2379 net@2377 gnd NMOS L=0.6U W=11.25U AS=9.037P AD=28.36P 
+PS=16.45U PD=42.077U
Mnmos@155 gnd net@2377 net@2379 gnd NMOS L=0.6U W=11.25U AS=8.287P AD=28.36P 
+PS=16.05U PD=42.077U
Mnmos@156 net@480 net@1803 net@2377 gnd NMOS L=0.6U W=4.5U AS=9.037P 
+AD=32.973P PS=16.45U PD=30.164U
Mnmos@157 net@481 net@1803 net@2379 gnd NMOS L=0.6U W=4.5U AS=8.287P 
+AD=32.973P PS=16.05U PD=30.164U
Mnmos@158 gnd net@2422 net@2420 gnd NMOS L=0.6U W=11.25U AS=9.037P AD=28.36P 
+PS=16.45U PD=42.077U
Mnmos@159 gnd net@2420 net@2422 gnd NMOS L=0.6U W=11.25U AS=8.287P AD=28.36P 
+PS=16.05U PD=42.077U
Mnmos@160 net@613 net@1803 net@2420 gnd NMOS L=0.6U W=4.5U AS=9.037P 
+AD=32.973P PS=16.45U PD=30.164U
Mnmos@161 net@614 net@1803 net@2422 gnd NMOS L=0.6U W=4.5U AS=8.287P 
+AD=73.064P PS=16.05U PD=57.436U
Mnmos@162 gnd net@2468 net@2466 gnd NMOS L=0.6U W=11.25U AS=9.037P AD=28.36P 
+PS=16.45U PD=42.077U
Mnmos@163 gnd net@2466 net@2468 gnd NMOS L=0.6U W=11.25U AS=8.287P AD=28.36P 
+PS=16.05U PD=42.077U
Mnmos@164 net@661 net@1803 net@2466 gnd NMOS L=0.6U W=4.5U AS=9.037P 
+AD=32.973P PS=16.45U PD=30.164U
Mnmos@165 net@662 net@1803 net@2468 gnd NMOS L=0.6U W=4.5U AS=8.287P 
+AD=32.973P PS=16.05U PD=30.164U
Mnmos@166 gnd net@1785 net@1786 gnd NMOS L=0.6U W=11.25U AS=9.037P AD=28.36P 
+PS=16.45U PD=42.077U
Mnmos@167 gnd net@1786 net@1785 gnd NMOS L=0.6U W=11.25U AS=8.287P AD=28.36P 
+PS=16.05U PD=42.077U
Mnmos@168 net@710 net@1803 net@1786 gnd NMOS L=0.6U W=4.5U AS=9.037P 
+AD=32.973P PS=16.45U PD=30.164U
Mnmos@169 net@711 net@1803 net@1785 gnd NMOS L=0.6U W=4.5U AS=8.287P 
+AD=32.973P PS=16.05U PD=30.164U
Mnmos@170 gnd net@1793 net@1791 gnd NMOS L=0.6U W=11.25U AS=9.037P AD=28.36P 
+PS=16.45U PD=42.077U
Mnmos@171 gnd net@1791 net@1793 gnd NMOS L=0.6U W=11.25U AS=8.287P AD=28.36P 
+PS=16.05U PD=42.077U
Mnmos@172 net@754 net@1803 net@1791 gnd NMOS L=0.6U W=4.5U AS=9.037P 
+AD=32.973P PS=16.45U PD=30.164U
Mnmos@173 net@755 net@1803 net@1793 gnd NMOS L=0.6U W=4.5U AS=8.287P 
+AD=32.973P PS=16.05U PD=30.164U
Mnmos@174 gnd net@1837 net@1835 gnd NMOS L=0.6U W=11.25U AS=9.037P AD=28.36P 
+PS=16.45U PD=42.077U
Mnmos@175 gnd net@1835 net@1837 gnd NMOS L=0.6U W=11.25U AS=8.287P AD=28.36P 
+PS=16.05U PD=42.077U
Mnmos@176 net@798 net@1803 net@1835 gnd NMOS L=0.6U W=4.5U AS=9.037P 
+AD=32.973P PS=16.45U PD=30.164U
Mnmos@177 net@799 net@1803 net@1837 gnd NMOS L=0.6U W=4.5U AS=8.287P 
+AD=32.973P PS=16.05U PD=30.164U
Mnmos@178 gnd net@1893 net@1891 gnd NMOS L=0.6U W=11.25U AS=9.037P AD=28.36P 
+PS=16.45U PD=42.077U
Mnmos@179 gnd net@1891 net@1893 gnd NMOS L=0.6U W=11.25U AS=8.287P AD=28.36P 
+PS=16.05U PD=42.077U
Mnmos@180 net@951 net@1803 net@1891 gnd NMOS L=0.6U W=4.5U AS=9.037P 
+AD=32.973P PS=16.45U PD=30.164U
Mnmos@181 net@952 net@1803 net@1893 gnd NMOS L=0.6U W=4.5U AS=8.287P 
+AD=32.973P PS=16.05U PD=30.164U
Mnmos@182 gnd net@1940 net@1938 gnd NMOS L=0.6U W=11.25U AS=9.037P AD=28.36P 
+PS=16.45U PD=42.077U
Mnmos@183 gnd net@1938 net@1940 gnd NMOS L=0.6U W=11.25U AS=8.287P AD=28.36P 
+PS=16.05U PD=42.077U
Mnmos@184 net@998 net@1803 net@1938 gnd NMOS L=0.6U W=4.5U AS=9.037P 
+AD=32.973P PS=16.45U PD=30.164U
Mnmos@185 net@999 net@1803 net@1940 gnd NMOS L=0.6U W=4.5U AS=8.287P 
+AD=32.973P PS=16.05U PD=30.164U
Mnmos@186 gnd p47 o47 gnd NMOS L=0.6U W=11.25U AS=9.037P AD=28.36P PS=16.45U 
+PD=42.077U
Mnmos@187 gnd o47 p47 gnd NMOS L=0.6U W=11.25U AS=8.287P AD=28.36P PS=16.05U 
+PD=42.077U
Mnmos@188 net@480 net@2586 o47 gnd NMOS L=0.6U W=4.5U AS=9.037P AD=32.973P 
+PS=16.45U PD=30.164U
Mnmos@189 net@481 net@2586 p47 gnd NMOS L=0.6U W=4.5U AS=8.287P AD=32.973P 
+PS=16.05U PD=30.164U
Mnmos@190 gnd p46 net@3802 gnd NMOS L=0.6U W=11.25U AS=9.037P AD=28.36P 
+PS=16.45U PD=42.077U
Mnmos@191 gnd net@3802 p46 gnd NMOS L=0.6U W=11.25U AS=8.287P AD=28.36P 
+PS=16.05U PD=42.077U
Mnmos@192 net@613 net@2586 net@3802 gnd NMOS L=0.6U W=4.5U AS=9.037P 
+AD=32.973P PS=16.45U PD=30.164U
Mnmos@193 net@614 net@2586 p46 gnd NMOS L=0.6U W=4.5U AS=8.287P AD=73.064P 
+PS=16.05U PD=57.436U
Mnmos@194 gnd p45 net@3848 gnd NMOS L=0.6U W=11.25U AS=9.037P AD=28.36P 
+PS=16.45U PD=42.077U
Mnmos@195 gnd net@3848 p45 gnd NMOS L=0.6U W=11.25U AS=8.287P AD=28.36P 
+PS=16.05U PD=42.077U
Mnmos@196 net@661 net@2586 net@3848 gnd NMOS L=0.6U W=4.5U AS=9.037P 
+AD=32.973P PS=16.45U PD=30.164U
Mnmos@197 net@662 net@2586 p45 gnd NMOS L=0.6U W=4.5U AS=8.287P AD=32.973P 
+PS=16.05U PD=30.164U
Mnmos@198 gnd p44 net@3893 gnd NMOS L=0.6U W=11.25U AS=9.037P AD=28.36P 
+PS=16.45U PD=42.077U
Mnmos@199 gnd net@3893 p44 gnd NMOS L=0.6U W=11.25U AS=8.287P AD=28.36P 
+PS=16.05U PD=42.077U
Mnmos@200 net@710 net@2586 net@3893 gnd NMOS L=0.6U W=4.5U AS=9.037P 
+AD=32.973P PS=16.45U PD=30.164U
Mnmos@201 net@711 net@2586 p44 gnd NMOS L=0.6U W=4.5U AS=8.287P AD=32.973P 
+PS=16.05U PD=30.164U
Mnmos@202 gnd p43 net@3937 gnd NMOS L=0.6U W=11.25U AS=9.037P AD=28.36P 
+PS=16.45U PD=42.077U
Mnmos@203 gnd net@3937 p43 gnd NMOS L=0.6U W=11.25U AS=8.287P AD=28.36P 
+PS=16.05U PD=42.077U
Mnmos@204 net@754 net@2586 net@3937 gnd NMOS L=0.6U W=4.5U AS=9.037P 
+AD=32.973P PS=16.45U PD=30.164U
Mnmos@205 net@755 net@2586 p43 gnd NMOS L=0.6U W=4.5U AS=8.287P AD=32.973P 
+PS=16.05U PD=30.164U
Mnmos@206 gnd p42 net@3981 gnd NMOS L=0.6U W=11.25U AS=9.037P AD=28.36P 
+PS=16.45U PD=42.077U
Mnmos@207 gnd net@3981 p42 gnd NMOS L=0.6U W=11.25U AS=8.287P AD=28.36P 
+PS=16.05U PD=42.077U
Mnmos@208 net@798 net@2586 net@3981 gnd NMOS L=0.6U W=4.5U AS=9.037P 
+AD=32.973P PS=16.45U PD=30.164U
Mnmos@209 net@799 net@2586 p42 gnd NMOS L=0.6U W=4.5U AS=8.287P AD=32.973P 
+PS=16.05U PD=30.164U
Mnmos@210 gnd p41 net@4037 gnd NMOS L=0.6U W=11.25U AS=9.037P AD=28.36P 
+PS=16.45U PD=42.077U
Mnmos@211 gnd net@4037 p41 gnd NMOS L=0.6U W=11.25U AS=8.287P AD=28.36P 
+PS=16.05U PD=42.077U
Mnmos@212 net@951 net@2586 net@4037 gnd NMOS L=0.6U W=4.5U AS=9.037P 
+AD=32.973P PS=16.45U PD=30.164U
Mnmos@213 net@952 net@2586 p41 gnd NMOS L=0.6U W=4.5U AS=8.287P AD=32.973P 
+PS=16.05U PD=30.164U
Mnmos@214 gnd p40 o40 gnd NMOS L=0.6U W=11.25U AS=9.037P AD=28.36P PS=16.45U 
+PD=42.077U
Mnmos@215 gnd o40 p40 gnd NMOS L=0.6U W=11.25U AS=8.287P AD=28.36P PS=16.05U 
+PD=42.077U
Mnmos@216 net@998 net@2586 o40 gnd NMOS L=0.6U W=4.5U AS=9.037P AD=32.973P 
+PS=16.45U PD=30.164U
Mnmos@217 net@999 net@2586 p40 gnd NMOS L=0.6U W=4.5U AS=8.287P AD=32.973P 
+PS=16.05U PD=30.164U
Mnmos@218 gnd p57 o57 gnd NMOS L=0.6U W=11.25U AS=9.037P AD=28.36P PS=16.45U 
+PD=42.077U
Mnmos@219 gnd o57 p57 gnd NMOS L=0.6U W=11.25U AS=8.287P AD=28.36P PS=16.05U 
+PD=42.077U
Mnmos@220 net@480 net@2604 o57 gnd NMOS L=0.6U W=4.5U AS=9.037P AD=32.973P 
+PS=16.45U PD=30.164U
Mnmos@221 net@481 net@2604 p57 gnd NMOS L=0.6U W=4.5U AS=8.287P AD=32.973P 
+PS=16.05U PD=30.164U
Mnmos@222 gnd p56 net@2649 gnd NMOS L=0.6U W=11.25U AS=9.037P AD=28.36P 
+PS=16.45U PD=42.077U
Mnmos@223 gnd net@2649 p56 gnd NMOS L=0.6U W=11.25U AS=8.287P AD=28.36P 
+PS=16.05U PD=42.077U
Mnmos@224 net@613 net@2604 net@2649 gnd NMOS L=0.6U W=4.5U AS=9.037P 
+AD=32.973P PS=16.45U PD=30.164U
Mnmos@225 net@614 net@2604 p56 gnd NMOS L=0.6U W=4.5U AS=8.287P AD=73.064P 
+PS=16.05U PD=57.436U
Mnmos@226 gnd p55 net@2695 gnd NMOS L=0.6U W=11.25U AS=9.037P AD=28.36P 
+PS=16.45U PD=42.077U
Mnmos@227 gnd net@2695 p55 gnd NMOS L=0.6U W=11.25U AS=8.287P AD=28.36P 
+PS=16.05U PD=42.077U
Mnmos@228 net@661 net@2604 net@2695 gnd NMOS L=0.6U W=4.5U AS=9.037P 
+AD=32.973P PS=16.45U PD=30.164U
Mnmos@229 net@662 net@2604 p55 gnd NMOS L=0.6U W=4.5U AS=8.287P AD=32.973P 
+PS=16.05U PD=30.164U
Mnmos@230 gnd p54 net@2740 gnd NMOS L=0.6U W=11.25U AS=9.037P AD=28.36P 
+PS=16.45U PD=42.077U
Mnmos@231 gnd net@2740 p54 gnd NMOS L=0.6U W=11.25U AS=8.287P AD=28.36P 
+PS=16.05U PD=42.077U
Mnmos@232 net@710 net@2604 net@2740 gnd NMOS L=0.6U W=4.5U AS=9.037P 
+AD=32.973P PS=16.45U PD=30.164U
Mnmos@233 net@711 net@2604 p54 gnd NMOS L=0.6U W=4.5U AS=8.287P AD=32.973P 
+PS=16.05U PD=30.164U
Mnmos@234 gnd p53 net@2784 gnd NMOS L=0.6U W=11.25U AS=9.037P AD=28.36P 
+PS=16.45U PD=42.077U
Mnmos@235 gnd net@2784 p53 gnd NMOS L=0.6U W=11.25U AS=8.287P AD=28.36P 
+PS=16.05U PD=42.077U
Mnmos@236 net@754 net@2604 net@2784 gnd NMOS L=0.6U W=4.5U AS=9.037P 
+AD=32.973P PS=16.45U PD=30.164U
Mnmos@237 net@755 net@2604 p53 gnd NMOS L=0.6U W=4.5U AS=8.287P AD=32.973P 
+PS=16.05U PD=30.164U
Mnmos@238 gnd p52 net@2828 gnd NMOS L=0.6U W=11.25U AS=9.037P AD=28.36P 
+PS=16.45U PD=42.077U
Mnmos@239 gnd net@2828 p52 gnd NMOS L=0.6U W=11.25U AS=8.287P AD=28.36P 
+PS=16.05U PD=42.077U
Mnmos@240 net@798 net@2604 net@2828 gnd NMOS L=0.6U W=4.5U AS=9.037P 
+AD=32.973P PS=16.45U PD=30.164U
Mnmos@241 net@799 net@2604 p52 gnd NMOS L=0.6U W=4.5U AS=8.287P AD=32.973P 
+PS=16.05U PD=30.164U
Mnmos@242 gnd p51 net@2884 gnd NMOS L=0.6U W=11.25U AS=9.037P AD=28.36P 
+PS=16.45U PD=42.077U
Mnmos@243 gnd net@2884 p51 gnd NMOS L=0.6U W=11.25U AS=8.287P AD=28.36P 
+PS=16.05U PD=42.077U
Mnmos@244 net@951 net@2604 net@2884 gnd NMOS L=0.6U W=4.5U AS=9.037P 
+AD=32.973P PS=16.45U PD=30.164U
Mnmos@245 net@952 net@2604 p51 gnd NMOS L=0.6U W=4.5U AS=8.287P AD=32.973P 
+PS=16.05U PD=30.164U
Mnmos@246 gnd p50 o50 gnd NMOS L=0.6U W=11.25U AS=9.037P AD=28.36P PS=16.45U 
+PD=42.077U
Mnmos@247 gnd o50 p50 gnd NMOS L=0.6U W=11.25U AS=8.287P AD=28.36P PS=16.05U 
+PD=42.077U
Mnmos@248 net@998 net@2604 o50 gnd NMOS L=0.6U W=4.5U AS=9.037P AD=32.973P 
+PS=16.45U PD=30.164U
Mnmos@249 net@999 net@2604 p50 gnd NMOS L=0.6U W=4.5U AS=8.287P AD=32.973P 
+PS=16.05U PD=30.164U
Mnmos@250 gnd net@3180 net@3178 gnd NMOS L=0.6U W=11.25U AS=9.037P AD=28.36P 
+PS=16.45U PD=42.077U
Mnmos@251 gnd net@3178 net@3180 gnd NMOS L=0.6U W=11.25U AS=8.287P AD=28.36P 
+PS=16.05U PD=42.077U
Mnmos@252 net@480 net@3190 net@3178 gnd NMOS L=0.6U W=4.5U AS=9.037P 
+AD=32.973P PS=16.45U PD=30.164U
Mnmos@253 net@481 net@3190 net@3180 gnd NMOS L=0.6U W=4.5U AS=8.287P 
+AD=32.973P PS=16.05U PD=30.164U
Mnmos@254 gnd net@3223 net@3221 gnd NMOS L=0.6U W=11.25U AS=9.037P AD=28.36P 
+PS=16.45U PD=42.077U
Mnmos@255 gnd net@3221 net@3223 gnd NMOS L=0.6U W=11.25U AS=8.287P AD=28.36P 
+PS=16.05U PD=42.077U
Mnmos@256 net@613 net@3190 net@3221 gnd NMOS L=0.6U W=4.5U AS=9.037P 
+AD=32.973P PS=16.45U PD=30.164U
Mnmos@257 net@614 net@3190 net@3223 gnd NMOS L=0.6U W=4.5U AS=8.287P 
+AD=73.064P PS=16.05U PD=57.436U
Mnmos@258 gnd net@3269 net@3267 gnd NMOS L=0.6U W=11.25U AS=9.037P AD=28.36P 
+PS=16.45U PD=42.077U
Mnmos@259 gnd net@3267 net@3269 gnd NMOS L=0.6U W=11.25U AS=8.287P AD=28.36P 
+PS=16.05U PD=42.077U
Mnmos@260 net@661 net@3190 net@3267 gnd NMOS L=0.6U W=4.5U AS=9.037P 
+AD=32.973P PS=16.45U PD=30.164U
Mnmos@261 net@662 net@3190 net@3269 gnd NMOS L=0.6U W=4.5U AS=8.287P 
+AD=32.973P PS=16.05U PD=30.164U
Mnmos@262 gnd net@3314 net@3312 gnd NMOS L=0.6U W=11.25U AS=9.037P AD=28.36P 
+PS=16.45U PD=42.077U
Mnmos@263 gnd net@3312 net@3314 gnd NMOS L=0.6U W=11.25U AS=8.287P AD=28.36P 
+PS=16.05U PD=42.077U
Mnmos@264 net@710 net@3190 net@3312 gnd NMOS L=0.6U W=4.5U AS=9.037P 
+AD=32.973P PS=16.45U PD=30.164U
Mnmos@265 net@711 net@3190 net@3314 gnd NMOS L=0.6U W=4.5U AS=8.287P 
+AD=32.973P PS=16.05U PD=30.164U
Mnmos@266 gnd net@3358 net@3356 gnd NMOS L=0.6U W=11.25U AS=9.037P AD=28.36P 
+PS=16.45U PD=42.077U
Mnmos@267 gnd net@3356 net@3358 gnd NMOS L=0.6U W=11.25U AS=8.287P AD=28.36P 
+PS=16.05U PD=42.077U
Mnmos@268 net@754 net@3190 net@3356 gnd NMOS L=0.6U W=4.5U AS=9.037P 
+AD=32.973P PS=16.45U PD=30.164U
Mnmos@269 net@755 net@3190 net@3358 gnd NMOS L=0.6U W=4.5U AS=8.287P 
+AD=32.973P PS=16.05U PD=30.164U
Mnmos@270 gnd net@3402 net@3400 gnd NMOS L=0.6U W=11.25U AS=9.037P AD=28.36P 
+PS=16.45U PD=42.077U
Mnmos@271 gnd net@3400 net@3402 gnd NMOS L=0.6U W=11.25U AS=8.287P AD=28.36P 
+PS=16.05U PD=42.077U
Mnmos@272 net@798 net@3190 net@3400 gnd NMOS L=0.6U W=4.5U AS=9.037P 
+AD=32.973P PS=16.45U PD=30.164U
Mnmos@273 net@799 net@3190 net@3402 gnd NMOS L=0.6U W=4.5U AS=8.287P 
+AD=32.973P PS=16.05U PD=30.164U
Mnmos@274 gnd net@3458 net@3456 gnd NMOS L=0.6U W=11.25U AS=9.037P AD=28.36P 
+PS=16.45U PD=42.077U
Mnmos@275 gnd net@3456 net@3458 gnd NMOS L=0.6U W=11.25U AS=8.287P AD=28.36P 
+PS=16.05U PD=42.077U
Mnmos@276 net@951 net@3190 net@3456 gnd NMOS L=0.6U W=4.5U AS=9.037P 
+AD=32.973P PS=16.45U PD=30.164U
Mnmos@277 net@952 net@3190 net@3458 gnd NMOS L=0.6U W=4.5U AS=8.287P 
+AD=32.973P PS=16.05U PD=30.164U
Mnmos@278 gnd net@3505 net@3503 gnd NMOS L=0.6U W=11.25U AS=9.037P AD=28.36P 
+PS=16.45U PD=42.077U
Mnmos@279 gnd net@3503 net@3505 gnd NMOS L=0.6U W=11.25U AS=8.287P AD=28.36P 
+PS=16.05U PD=42.077U
Mnmos@280 net@998 net@3190 net@3503 gnd NMOS L=0.6U W=4.5U AS=9.037P 
+AD=32.973P PS=16.45U PD=30.164U
Mnmos@281 net@999 net@3190 net@3505 gnd NMOS L=0.6U W=4.5U AS=8.287P 
+AD=32.973P PS=16.05U PD=30.164U
Mnmos@282 gnd p77 o77 gnd NMOS L=0.6U W=11.25U AS=9.037P AD=28.36P PS=16.45U 
+PD=42.077U
Mnmos@283 gnd o77 p77 gnd NMOS L=0.6U W=11.25U AS=8.287P AD=28.36P PS=16.05U 
+PD=42.077U
Mnmos@284 net@480 net@2996 o77 gnd NMOS L=0.6U W=4.5U AS=9.037P AD=32.973P 
+PS=16.45U PD=30.164U
Mnmos@285 net@481 net@2996 p77 gnd NMOS L=0.6U W=4.5U AS=8.287P AD=32.973P 
+PS=16.05U PD=30.164U
Mnmos@286 gnd p76 net@3613 gnd NMOS L=0.6U W=11.25U AS=9.037P AD=28.36P 
+PS=16.45U PD=42.077U
Mnmos@287 gnd net@3613 p76 gnd NMOS L=0.6U W=11.25U AS=8.287P AD=28.36P 
+PS=16.05U PD=42.077U
Mnmos@288 net@613 net@2996 net@3613 gnd NMOS L=0.6U W=4.5U AS=9.037P 
+AD=32.973P PS=16.45U PD=30.164U
Mnmos@289 net@614 net@2996 p76 gnd NMOS L=0.6U W=4.5U AS=8.287P AD=73.064P 
+PS=16.05U PD=57.436U
Mnmos@290 gnd p75 net@3659 gnd NMOS L=0.6U W=11.25U AS=9.037P AD=28.36P 
+PS=16.45U PD=42.077U
Mnmos@291 gnd net@3659 p75 gnd NMOS L=0.6U W=11.25U AS=8.287P AD=28.36P 
+PS=16.05U PD=42.077U
Mnmos@292 net@661 net@2996 net@3659 gnd NMOS L=0.6U W=4.5U AS=9.037P 
+AD=32.973P PS=16.45U PD=30.164U
Mnmos@293 net@662 net@2996 p75 gnd NMOS L=0.6U W=4.5U AS=8.287P AD=32.973P 
+PS=16.05U PD=30.164U
Mnmos@294 gnd p74 net@2979 gnd NMOS L=0.6U W=11.25U AS=9.037P AD=28.36P 
+PS=16.45U PD=42.077U
Mnmos@295 gnd net@2979 p74 gnd NMOS L=0.6U W=11.25U AS=8.287P AD=28.36P 
+PS=16.05U PD=42.077U
Mnmos@296 net@710 net@2996 net@2979 gnd NMOS L=0.6U W=4.5U AS=9.037P 
+AD=32.973P PS=16.45U PD=30.164U
Mnmos@297 net@711 net@2996 p74 gnd NMOS L=0.6U W=4.5U AS=8.287P AD=32.973P 
+PS=16.05U PD=30.164U
Mnmos@298 gnd p73 net@2984 gnd NMOS L=0.6U W=11.25U AS=9.037P AD=28.36P 
+PS=16.45U PD=42.077U
Mnmos@299 gnd net@2984 p73 gnd NMOS L=0.6U W=11.25U AS=8.287P AD=28.36P 
+PS=16.05U PD=42.077U
Mnmos@300 net@754 net@2996 net@2984 gnd NMOS L=0.6U W=4.5U AS=9.037P 
+AD=32.973P PS=16.45U PD=30.164U
Mnmos@301 net@755 net@2996 p73 gnd NMOS L=0.6U W=4.5U AS=8.287P AD=32.973P 
+PS=16.05U PD=30.164U
Mnmos@302 gnd p72 net@3028 gnd NMOS L=0.6U W=11.25U AS=9.037P AD=28.36P 
+PS=16.45U PD=42.077U
Mnmos@303 gnd net@3028 p72 gnd NMOS L=0.6U W=11.25U AS=8.287P AD=28.36P 
+PS=16.05U PD=42.077U
Mnmos@304 net@798 net@2996 net@3028 gnd NMOS L=0.6U W=4.5U AS=9.037P 
+AD=32.973P PS=16.45U PD=30.164U
Mnmos@305 net@799 net@2996 p72 gnd NMOS L=0.6U W=4.5U AS=8.287P AD=32.973P 
+PS=16.05U PD=30.164U
Mnmos@306 gnd p71 net@3084 gnd NMOS L=0.6U W=11.25U AS=9.037P AD=28.36P 
+PS=16.45U PD=42.077U
Mnmos@307 gnd net@3084 p71 gnd NMOS L=0.6U W=11.25U AS=8.287P AD=28.36P 
+PS=16.05U PD=42.077U
Mnmos@308 net@951 net@2996 net@3084 gnd NMOS L=0.6U W=4.5U AS=9.037P 
+AD=32.973P PS=16.45U PD=30.164U
Mnmos@309 net@952 net@2996 p71 gnd NMOS L=0.6U W=4.5U AS=8.287P AD=32.973P 
+PS=16.05U PD=30.164U
Mnmos@310 gnd p70 o70 gnd NMOS L=0.6U W=11.25U AS=9.037P AD=28.36P PS=16.45U 
+PD=42.077U
Mnmos@311 gnd o70 p70 gnd NMOS L=0.6U W=11.25U AS=8.287P AD=28.36P PS=16.05U 
+PD=42.077U
Mnmos@312 net@998 net@2996 o70 gnd NMOS L=0.6U W=4.5U AS=9.037P AD=32.973P 
+PS=16.45U PD=30.164U
Mnmos@313 net@999 net@2996 p70 gnd NMOS L=0.6U W=4.5U AS=8.287P AD=32.973P 
+PS=16.05U PD=30.164U
Mnmos@314 net@6542 qo net@7169 gnd NMOS L=0.6U W=3U AS=5.362P AD=64.575P 
+PS=11.35U PD=75.45U
Mnmos@315 qo net@6542 net@7169 gnd NMOS L=0.6U W=3U AS=5.362P AD=63.787P 
+PS=11.35U PD=74.55U
Mnmos@316 gnd SAE net@7169 gnd NMOS L=0.6U W=3U AS=5.362P AD=28.36P PS=11.35U 
+PD=42.077U
Mnmos@317 net@7127 WE net@6542 gnd NMOS L=0.6U W=67.5U AS=64.575P AD=61.155P 
+PS=75.45U PD=136.8U
Mnmos@318 gnd d0 net@7127 gnd NMOS L=0.6U W=67.5U AS=61.155P AD=28.36P 
+PS=136.8U PD=42.077U
Mnmos@319 net@7132 WE qo gnd NMOS L=0.6U W=67.5U AS=63.787P AD=61.222P 
+PS=74.55U PD=136.95U
Mnmos@320 gnd net@7143 net@7132 gnd NMOS L=0.6U W=67.5U AS=61.222P AD=28.36P 
+PS=136.95U PD=42.077U
Mnmos@321 gnd d0 net@7143 gnd NMOS L=0.6U W=3U AS=10.125P AD=28.36P PS=14.1U 
+PD=42.077U
Mnmos@322 net@7227 q1 net@7279 gnd NMOS L=0.6U W=3U AS=5.362P AD=63.675P 
+PS=11.35U PD=74.25U
Mnmos@323 q1 net@7227 net@7279 gnd NMOS L=0.6U W=3U AS=5.362P AD=63.45P 
+PS=11.35U PD=74.1U
Mnmos@324 gnd SAE net@7279 gnd NMOS L=0.6U W=3U AS=5.362P AD=28.36P PS=11.35U 
+PD=42.077U
Mnmos@325 net@7234 WE net@7227 gnd NMOS L=0.6U W=67.5U AS=63.675P AD=61.155P 
+PS=74.25U PD=136.8U
Mnmos@326 gnd d1 net@7234 gnd NMOS L=0.6U W=67.5U AS=61.155P AD=28.36P 
+PS=136.8U PD=42.077U